
     RDKit          3D

 25 26  0  0  0  0  0  0  0  0999 V2000
    3.0568    0.4497   -0.7382 C   0  0  0  0  0  0  0  0  0  0  0  0
    2.6974    0.6586    0.5711 C   0  0  0  0  0  0  0  0  0  0  0  0
   -1.8313   -1.0675    0.2651 C   0  0  0  0  0  0  0  0  0  0  0  0
   -2.5215   -0.0186   -0.5616 C   0  0  0  0  0  0  0  0  0  0  0  0
    0.8916   -0.4400   -1.1409 C   0  0  0  0  0  0  0  0  0  0  0  0
   -0.4260   -0.0568    2.1967 C   0  0  0  0  0  0  0  0  0  0  0  0
   -0.6376   -0.4683    0.8995 C   0  0  0  0  0  0  0  0  0  0  0  0
    2.1336   -0.1141   -1.6222 C   0  0  0  0  0  0  0  0  0  0  0  0
    0.5422   -0.2207    0.1952 C   0  0  0  0  0  0  0  0  0  0  0  0
    1.4483    0.3367    1.0775 C   0  0  0  0  0  0  0  0  0  0  0  0
   -2.9550    1.1145    0.2155 N   0  0  0  0  0  0  0  0  0  0  0  0
    0.8481    0.4285    2.2803 N   0  0  0  0  0  0  0  0  0  0  0  0
    2.4956   -0.3289   -2.9567 O   0  0  0  0  0  0  0  0  0  0  0  0
    4.0283    0.6978   -1.1407 H   0  0  0  0  0  0  0  0  0  0  0  0
    3.4495    1.1023    1.2328 H   0  0  0  0  0  0  0  0  0  0  0  0
   -2.5220   -1.5064    1.0223 H   0  0  0  0  0  0  0  0  0  0  0  0
   -1.4904   -1.8943   -0.3900 H   0  0  0  0  0  0  0  0  0  0  0  0
   -3.3103   -0.4812   -1.1665 H   0  0  0  0  0  0  0  0  0  0  0  0
   -1.7793    0.3908   -1.3028 H   0  0  0  0  0  0  0  0  0  0  0  0
    0.1810   -0.8790   -1.8397 H   0  0  0  0  0  0  0  0  0  0  0  0
   -1.1461   -0.1130    2.9925 H   0  0  0  0  0  0  0  0  0  0  0  0
   -3.8970    0.9676    0.6512 H   0  0  0  0  0  0  0  0  0  0  0  0
   -3.1229    1.8948   -0.4883 H   0  0  0  0  0  0  0  0  0  0  0  0
    1.3363    0.8210    3.1094 H   0  0  0  0  0  0  0  0  0  0  0  0
    2.5307   -1.2736   -3.3616 H   0  0  0  0  0  0  0  0  0  0  0  0
  1  2  2  0
  1  8  1  0
  2 10  1  0
  3  4  1  0
  3  7  1  0
  4 11  1  0
  5  8  2  0
  5  9  1  0
  6  7  2  0
  6 12  1  0
  7  9  1  0
  8 13  1  0
  9 10  2  0
 10 12  1  0
  1 14  1  0
  2 15  1  0
  3 16  1  0
  3 17  1  0
  4 18  1  0
  4 19  1  0
  5 20  1  0
  6 21  1  0
 11 22  1  0
 11 23  1  0
 12 24  1  0
 13 25  1  0
M  END
>  <atom_stereo_count>  (1) 
0

>  <atoms>  (1) 
[{'aid': 1, 'element': 'O', 'number': 8, 'x': 2.5369, 'y': 0.0103}, {'aid': 2, 'element': 'N', 'number': 7, 'x': 6.0812, 'y': -1.7944}, {'aid': 3, 'element': 'N', 'number': 7, 'x': 7.6811, 'y': 1.9223}, {'aid': 4, 'element': 'C', 'number': 6, 'x': 6.0812, 'y': -0.185}, {'aid': 5, 'element': 'C', 'number': 6, 'x': 5.135, 'y': -0.4897}, {'aid': 6, 'element': 'C', 'number': 6, 'x': 6.3919, 'y': 0.7656}, {'aid': 7, 'element': 'C', 'number': 6, 'x': 5.135, 'y': -1.4897}, {'aid': 8, 'element': 'C', 'number': 6, 'x': 6.6648, 'y': -0.9897}, {'aid': 9, 'element': 'C', 'number': 6, 'x': 7.3704, 'y': 0.9718}, {'aid': 10, 'element': 'C', 'number': 6, 'x': 4.269, 'y': 0.0103}, {'aid': 11, 'element': 'C', 'number': 6, 'x': 4.269, 'y': -1.9897}, {'aid': 12, 'element': 'C', 'number': 6, 'x': 3.403, 'y': -0.4897}, {'aid': 13, 'element': 'C', 'number': 6, 'x': 3.403, 'y': -1.4897}, {'aid': 14, 'element': 'H', 'number': 1, 'x': 6.3713, 'y': 1.3852}, {'aid': 15, 'element': 'H', 'number': 1, 'x': 5.7781, 'y': 0.8529}, {'aid': 16, 'element': 'H', 'number': 1, 'x': 7.2848, 'y': -0.9897}, {'aid': 17, 'element': 'H', 'number': 1, 'x': 6.2738, 'y': -2.3838}, {'aid': 18, 'element': 'H', 'number': 1, 'x': 7.391, 'y': 0.3521}, {'aid': 19, 'element': 'H', 'number': 1, 'x': 7.9842, 'y': 0.8844}, {'aid': 20, 'element': 'H', 'number': 1, 'x': 4.269, 'y': 0.6303}, {'aid': 21, 'element': 'H', 'number': 1, 'x': 4.269, 'y': -2.6097}, {'aid': 22, 'element': 'H', 'number': 1, 'x': 2.866, 'y': -1.7997}, {'aid': 23, 'element': 'H', 'number': 1, 'x': 8.2877, 'y': 2.0502}, {'aid': 24, 'element': 'H', 'number': 1, 'x': 7.267, 'y': 2.3838}, {'aid': 25, 'element': 'H', 'number': 1, 'x': 2, 'y': -0.2997}]

>  <bond_stereo_count>  (1) 
0

>  <bonds>  (1) 
[{'aid1': 1, 'aid2': 12, 'order': 1}, {'aid1': 1, 'aid2': 25, 'order': 1}, {'aid1': 2, 'aid2': 7, 'order': 1, 'style': 8}, {'aid1': 2, 'aid2': 8, 'order': 1, 'style': 8}, {'aid1': 2, 'aid2': 17, 'order': 1}, {'aid1': 3, 'aid2': 9, 'order': 1}, {'aid1': 3, 'aid2': 23, 'order': 1}, {'aid1': 3, 'aid2': 24, 'order': 1}, {'aid1': 4, 'aid2': 5, 'order': 1, 'style': 8}, {'aid1': 4, 'aid2': 6, 'order': 1}, {'aid1': 4, 'aid2': 8, 'order': 2, 'style': 8}, {'aid1': 5, 'aid2': 7, 'order': 2, 'style': 8}, {'aid1': 5, 'aid2': 10, 'order': 1, 'style': 8}, {'aid1': 6, 'aid2': 9, 'order': 1}, {'aid1': 6, 'aid2': 14, 'order': 1}, {'aid1': 6, 'aid2': 15, 'order': 1}, {'aid1': 7, 'aid2': 11, 'order': 1, 'style': 8}, {'aid1': 8, 'aid2': 16, 'order': 1}, {'aid1': 9, 'aid2': 18, 'order': 1}, {'aid1': 9, 'aid2': 19, 'order': 1}, {'aid1': 10, 'aid2': 12, 'order': 2, 'style': 8}, {'aid1': 10, 'aid2': 20, 'order': 1}, {'aid1': 11, 'aid2': 13, 'order': 2, 'style': 8}, {'aid1': 11, 'aid2': 21, 'order': 1}, {'aid1': 12, 'aid2': 13, 'order': 1, 'style': 8}, {'aid1': 13, 'aid2': 22, 'order': 1}]

>  <cactvs_fingerprint>  (1) 
11000000011100110010000000000000000000000000000000000000000000000000000000000000000000000000000000000000000000000000000000000000000000000000000101100000000000000000000000000000001100000000000000000000000000000000000000000000000000000000000001011000000000011111000000000000000000000001111000000000000100000000100000000000000000000000110000001100110000011001111000000100001111001100011011110010110010011001001000000000101000000000001100110100011001110100010000000000100000101000000000100000001100010010001000100000000010001101100110100000001111100110110010011000000010000010011011100010110000101001000110010011100001000111000000001000011001001101000000010001110010001101100000000111101100001101000011110010000011101000000001000000000000010000000000000000000000100000000000000000000000001000000000000010000000000000000000000100000000000000000000000000000000000000000000000000000000000

>  <charge>  (1) 
0

>  <complexity>  (1) 
174

>  <conformer_id_3d>  (1) 


>  <conformer_rmsd_3d>  (1) 


>  <coordinate_type>  (1) 
2d

>  <covalent_unit_count>  (1) 
1

>  <defined_atom_stereo_count>  (1) 
0

>  <defined_bond_stereo_count>  (1) 
0

>  <effective_rotor_count_3d>  (1) 


>  <elements>  (1) 
['O', 'N', 'N', 'C', 'C', 'C', 'C', 'C', 'C', 'C', 'C', 'C', 'C', 'H', 'H', 'H', 'H', 'H', 'H', 'H', 'H', 'H', 'H', 'H', 'H']

>  <exact_mass>  (1) 
176.094963011

>  <feature_selfoverlap_3d>  (1) 


>  <fingerprint>  (1) 
00000371C073200000000000000000000000000000016000000030000000000000005801F000001E00100800000C0CC19E043CC6F2C99200A0033467440082802031222008D9A03E6C980826E2C2919384700864D011C8D807B0D0F20E80400100000200000080020000040000000000000000

>  <h_bond_acceptor_count>  (1) 
2

>  <h_bond_donor_count>  (1) 
3

>  <heavy_atom_count>  (1) 
13

>  <isotope_atom_count>  (1) 
0

>  <iupac_name>  (1) 
3-(2-aminoethyl)-1H-indol-5-ol

>  <mmff94_energy_3d>  (1) 


>  <mmff94_partial_charges_3d>  (1) 


>  <molecular_weight>  (1) 
176.219

>  <monoisotopic_mass>  (1) 
176.094963011

>  <multipoles_3d>  (1) 


>  <pharmacophore_features_3d>  (1) 


>  <record>  (1) 
{'atoms': {'aid': [1, 2, 3, 4, 5, 6, 7, 8, 9, 10, 11, 12, 13, 14, 15, 16, 17, 18, 19, 20, 21, 22, 23, 24, 25], 'element': [8, 7, 7, 6, 6, 6, 6, 6, 6, 6, 6, 6, 6, 1, 1, 1, 1, 1, 1, 1, 1, 1, 1, 1, 1]}, 'bonds': {'aid1': [1, 1, 2, 2, 2, 3, 3, 3, 4, 4, 4, 5, 5, 6, 6, 6, 7, 8, 9, 9, 10, 10, 11, 11, 12, 13], 'aid2': [12, 25, 7, 8, 17, 9, 23, 24, 5, 6, 8, 7, 10, 9, 14, 15, 11, 16, 18, 19, 12, 20, 13, 21, 13, 22], 'order': [1, 1, 1, 1, 1, 1, 1, 1, 1, 1, 2, 2, 1, 1, 1, 1, 1, 1, 1, 1, 2, 1, 2, 1, 1, 1]}, 'charge': 0, 'coords': [{'aid': [1, 2, 3, 4, 5, 6, 7, 8, 9, 10, 11, 12, 13, 14, 15, 16, 17, 18, 19, 20, 21, 22, 23, 24, 25], 'conformers': [{'style': {'aid1': [2, 2, 4, 4, 5, 5, 7, 10, 11, 12], 'aid2': [7, 8, 5, 8, 7, 10, 11, 12, 13, 13], 'annotation': [8, 8, 8, 8, 8, 8, 8, 8, 8, 8]}, 'x': [2.5369, 6.0812, 7.6811, 6.0812, 5.135, 6.3919, 5.135, 6.6648, 7.3704, 4.269, 4.269, 3.403, 3.403, 6.3713, 5.7781, 7.2848, 6.2738, 7.391, 7.9842, 4.269, 4.269, 2.866, 8.2877, 7.267, 2], 'y': [0.0103, -1.7944, 1.9223, -0.185, -0.4897, 0.7656, -1.4897, -0.9897, 0.9718, 0.0103, -1.9897, -0.4897, -1.4897, 1.3852, 0.8529, -0.9897, -2.3838, 0.3521, 0.8844, 0.6303, -2.6097, -1.7997, 2.0502, 2.3838, -0.2997]}], 'type': [1, 5, 255]}], 'count': {'atom_chiral': 0, 'atom_chiral_def': 0, 'atom_chiral_undef': 0, 'bond_chiral': 0, 'bond_chiral_def': 0, 'bond_chiral_undef': 0, 'covalent_unit': 1, 'heavy_atom': 13, 'isotope_atom': 0, 'tautomers': -1}, 'id': {'id': {'cid': 5202}}, 'props': [{'urn': {'datatype': 5, 'label': 'Compound', 'name': 'Canonicalized', 'release': '2021.10.14'}, 'value': {'ival': 1}}, {'urn': {'datatype': 7, 'implementation': 'E_COMPLEXITY', 'label': 'Compound Complexity', 'release': '2021.10.14', 'software': 'Cactvs', 'source': 'Xemistry GmbH', 'version': '3.4.8.18'}, 'value': {'fval': 174}}, {'urn': {'datatype': 5, 'implementation': 'E_NHACCEPTORS', 'label': 'Count', 'name': 'Hydrogen Bond Acceptor', 'release': '2021.10.14', 'software': 'Cactvs', 'source': 'Xemistry GmbH', 'version': '3.4.8.18'}, 'value': {'ival': 2}}, {'urn': {'datatype': 5, 'implementation': 'E_NHDONORS', 'label': 'Count', 'name': 'Hydrogen Bond Donor', 'release': '2021.10.14', 'software': 'Cactvs', 'source': 'Xemistry GmbH', 'version': '3.4.8.18'}, 'value': {'ival': 3}}, {'urn': {'datatype': 5, 'implementation': 'E_NROTBONDS', 'label': 'Count', 'name': 'Rotatable Bond', 'release': '2021.10.14', 'software': 'Cactvs', 'source': 'Xemistry GmbH', 'version': '3.4.8.18'}, 'value': {'ival': 2}}, {'urn': {'datatype': 16, 'implementation': 'E_SCREEN', 'label': 'Fingerprint', 'name': 'SubStructure Keys', 'parameters': 'extended 2', 'release': '2021.10.14', 'software': 'Cactvs', 'source': 'Xemistry GmbH', 'version': '3.4.8.18'}, 'value': {'binary': '00000371C073200000000000000000000000000000016000000030000000000000005801F000001E00100800000C0CC19E043CC6F2C99200A0033467440082802031222008D9A03E6C980826E2C2919384700864D011C8D807B0D0F20E80400100000200000080020000040000000000000000'}}, {'urn': {'datatype': 1, 'label': 'IUPAC Name', 'name': 'Allowed', 'release': '2021.10.14', 'software': 'Lexichem TK', 'source': 'OpenEye Scientific Software', 'version': '2.7.0'}, 'value': {'sval': '3-(2-aminoethyl)-1H-indol-5-ol'}}, {'urn': {'datatype': 1, 'label': 'IUPAC Name', 'name': 'CAS-like Style', 'release': '2021.10.14', 'software': 'Lexichem TK', 'source': 'OpenEye Scientific Software', 'version': '2.7.0'}, 'value': {'sval': '3-(2-aminoethyl)-1H-indol-5-ol'}}, {'urn': {'datatype': 1, 'label': 'IUPAC Name', 'name': 'Markup', 'release': '2021.10.14', 'software': 'Lexichem TK', 'source': 'OpenEye Scientific Software', 'version': '2.7.0'}, 'value': {'sval': '3-(2-aminoethyl)-1<I>H</I>-indol-5-ol'}}, {'urn': {'datatype': 1, 'label': 'IUPAC Name', 'name': 'Preferred', 'release': '2021.10.14', 'software': 'Lexichem TK', 'source': 'OpenEye Scientific Software', 'version': '2.7.0'}, 'value': {'sval': '3-(2-aminoethyl)-1H-indol-5-ol'}}, {'urn': {'datatype': 1, 'label': 'IUPAC Name', 'name': 'Systematic', 'release': '2021.10.14', 'software': 'Lexichem TK', 'source': 'OpenEye Scientific Software', 'version': '2.7.0'}, 'value': {'sval': '3-(2-azanylethyl)-1H-indol-5-ol'}}, {'urn': {'datatype': 1, 'label': 'IUPAC Name', 'name': 'Traditional', 'release': '2021.10.14', 'software': 'Lexichem TK', 'source': 'OpenEye Scientific Software', 'version': '2.7.0'}, 'value': {'sval': '3-(2-aminoethyl)-1H-indol-5-ol'}}, {'urn': {'datatype': 1, 'label': 'InChI', 'name': 'Standard', 'release': '2021.10.14', 'software': 'InChI', 'source': 'iupac.org', 'version': '1.0.6'}, 'value': {'sval': 'InChI=1S/C10H12N2O/c11-4-3-7-6-12-10-2-1-8(13)5-9(7)10/h1-2,5-6,12-13H,3-4,11H2'}}, {'urn': {'datatype': 1, 'label': 'InChIKey', 'name': 'Standard', 'release': '2021.10.14', 'software': 'InChI', 'source': 'iupac.org', 'version': '1.0.6'}, 'value': {'sval': 'QZAYGJVTTNCVMB-UHFFFAOYSA-N'}}, {'urn': {'datatype': 7, 'label': 'Log P', 'name': 'XLogP3', 'release': '2021.10.14', 'source': 'sioc-ccbg.ac.cn', 'version': '3.0'}, 'value': {'fval': 0.2}}, {'urn': {'datatype': 1, 'label': 'Mass', 'name': 'Exact', 'release': '2021.10.14', 'software': 'PubChem', 'source': 'ncbi.nlm.nih.gov', 'version': '2.2'}, 'value': {'sval': '176.094963011'}}, {'urn': {'datatype': 1, 'label': 'Molecular Formula', 'release': '2021.10.14', 'software': 'PubChem', 'source': 'ncbi.nlm.nih.gov', 'version': '2.2'}, 'value': {'sval': 'C10H12N2O'}}, {'urn': {'datatype': 1, 'label': 'Molecular Weight', 'release': '2021.10.14', 'software': 'PubChem', 'source': 'ncbi.nlm.nih.gov', 'version': '2.2'}, 'value': {'sval': '176.21'}}, {'urn': {'datatype': 1, 'label': 'SMILES', 'name': 'Canonical', 'release': '2021.10.14', 'software': 'OEChem', 'source': 'OpenEye Scientific Software', 'version': '2.3.0'}, 'value': {'sval': 'C1=CC2=C(C=C1O)C(=CN2)CCN'}}, {'urn': {'datatype': 1, 'label': 'SMILES', 'name': 'Isomeric', 'release': '2021.10.14', 'software': 'OEChem', 'source': 'OpenEye Scientific Software', 'version': '2.3.0'}, 'value': {'sval': 'C1=CC2=C(C=C1O)C(=CN2)CCN'}}, {'urn': {'datatype': 7, 'implementation': 'E_TPSA', 'label': 'Topological', 'name': 'Polar Surface Area', 'release': '2021.10.14', 'software': 'Cactvs', 'source': 'Xemistry GmbH', 'version': '3.4.8.18'}, 'value': {'fval': 62}}, {'urn': {'datatype': 1, 'label': 'Weight', 'name': 'MonoIsotopic', 'release': '2021.10.14', 'software': 'PubChem', 'source': 'ncbi.nlm.nih.gov', 'version': '2.2'}, 'value': {'sval': '176.094963011'}}]}

>  <rotatable_bond_count>  (1) 
2

>  <shape_fingerprint_3d>  (1) 


>  <shape_selfoverlap_3d>  (1) 


>  <tpsa>  (1) 
62

>  <undefined_atom_stereo_count>  (1) 
0

>  <undefined_bond_stereo_count>  (1) 
0

>  <volume_3d>  (1) 


>  <xlogp>  (1) 
0.2

>  <synonyms>  (1) 
['serotonin', '5-HYDROXYTRYPTAMINE', '50-67-9', '3-(2-Aminoethyl)-1H-indol-5-ol', 'Enteramine', 'Thrombotonin', '5-HT', 'Thrombocytin', 'Antemovis', 'Serotonine', 'Ds substance', 'Antemoqua', 'Hippophain', 'Substance DS', 'Substanz DS', '5-Hta', '1H-Indol-5-ol, 3-(2-aminoethyl)-', 'Tryptamine, 5-hydroxy-', 'Hippophaine', '3-(2-Aminoethyl)indol-5-ol', 'Indol-5-ol, 3-(2-aminoethyl)-', '3-(beta-Aminoethyl)-5-hydroxyindole', '5-Hydroxy-3-(beta-aminoethyl)indole', 'Enteramin', 'UNII-333DO1RDJY', 'EINECS 200-058-9', '333DO1RDJY', 'BRN 0143524', 'CHEBI:28790', '3-(2-Amino-ethyl)-1H-indol-5-ol', 'DTXSID8075330', '3-(.beta.-Aminoethyl)-5-hydroxyindole', 'SEROTONIN (MART.)', 'SEROTONIN [MART.]', '[3H]-5-HT', '5 Hydroxytryptamine', '5-hydroxytryptamin', '5-Hydroxytriptamine', 'Serotonin1543', '5-Hydroxyltryptamine', '5-hydroxy-tryptamine', 'Enteramin; Enteramine', '5-hydroxyl tryptamine', 'GTPL5', 'SEROTONIN [MI]', 'CHEMBL39', 'Prestwick0_000481', 'Prestwick1_000481', 'Prestwick2_000481', 'Prestwick3_000481', 'Lopac-H-9523', '5-Hydroxytryptamine;5-HT', 'Biomol-NT_000083', 'bmse000757', 'SCHEMBL1495', 'SEROTONIN [WHO-DD]', 'Lopac0_000607', 'Oprea1_712368', 'BSPBio_000341', 'BSPBio_001112', 'KBioGR_000452', 'KBioGR_002472', 'KBioSS_000452', 'KBioSS_002479', '5-22-12-00016 (Beilstein Handbook Reference)', 'Serotonin, analytical standard', 'SPBio_002262', '5-Hydroxytryptamine, free base', 'BPBio1_000377', 'BPBio1_001079', 'DTXCID4040765', 'BCBcMAP01_000198', 'BDBM10755', 'KBio2_000452', 'KBio2_002472', 'KBio2_003020', 'KBio2_005040', 'KBio2_005588', 'KBio2_007608', 'KBio3_000843', 'KBio3_000844', 'KBio3_002950', 'cMAP_000059', '3-(b-Aminoethyl)-5-hydroxyindole', '5-Hydroxy-3-(b-aminoethyl)indole', 'Bio1_000450', 'Bio1_000939', 'Bio1_001428', 'Bio2_000396', 'Bio2_000876', 'HMS1362H13', 'HMS1792H13', 'HMS1990H13', 'HMS3403H13', '3-(2-Aminoethyl)-1H-indol-5-o', 'MFCD00055054', 'PDSP1_001512', 'PDSP2_001496', 'STK503758', 'AKOS001484724', '3-(2-Aminoethyl)-1H-indol-5-ol #', 'CCG-204696', 'DB08839', 'indole, 3-(2-aminoethyl)-5-hydroxy-', 'SDCCGSBI-0050589.P002', '5-Hydroxy-3-(.beta.-aminoethyl)indole', 'IDI1_002151', 'SMP1_000272', '5-hydroxy tryptamine creatinine disulfate', 'NCGC00015525-01', 'NCGC00015525-02', 'NCGC00015525-03', 'NCGC00015525-04', 'NCGC00015525-05', 'NCGC00015525-06', 'NCGC00015525-07', 'NCGC00015525-08', 'NCGC00015525-09', 'NCGC00015525-18', 'NCGC00015525-19', 'NCGC00142449-01', 'NCGC00142449-02', 'NCGC00142449-03', 'NCGC00142449-04', 'NCGC00142449-05', 'AS-75772', 'CAS-153-98-0', 'DB-051820', 'NS00007188', '14C-5-hydroxy tryptamine creatinine disulfate', 'C00780', 'EN300-120141', 'G77704', 'H-8000', 'A828245', 'L000078', 'Q167934', 'BRD-K38580127-003-15-4', 'BRD-K38580127-003-16-2', 'BRD-K38580127-003-17-0', '6F7FD5B4-A558-45F0-A20A-2D068A3EFE6A', '2-imino-1-methylimidazolidin-4-one; 3-(2-aminoethyl)-1H-indol-5-ol; bis(sulfuric acid)', '1094000-36-8', '6F7FD5B4-A558-45F0-A20A-2D068A3EFE6A', 'Bio1_000939', 'Antemoqua', 'NCGC00015525-06', '[3H]-5-HT', '3-(2-Aminoethyl)-1H-indol-5-ol', 'Ds substance', 'cMAP_000059', 'NCGC00015525-03', 'KBio2_000452', '3-(2-Aminoethyl)-1H-indol-5-o', '1H-Indol-5-ol, 3-(2-aminoethyl)-', 'Serotonine', 'bmse000757', 'CCG-204696', '3-(2-Aminoethyl)-1H-indol-5-ol #', 'BCBcMAP01_000198', 'DB-051820', 'NCGC00015525-05', '50-67-9', '5-Hydroxy-3-(b-aminoethyl)indole', '3-(.beta.-Aminoethyl)-5-hydroxyindole', 'NCGC00142449-03', 'MFCD00055054', 'NCGC00015525-08', 'H-8000', 'Prestwick2_000481', '5-Hydroxytryptamine;5-HT', 'BSPBio_001112', 'serotonin', 'NCGC00015525-19', '5-HYDROXYTRYPTAMINE', '14C-5-hydroxy tryptamine creatinine disulfate', 'Enteramine', 'EN300-120141', 'NCGC00015525-01', '5-Hydroxy-3-(.beta.-aminoethyl)indole', 'C00780', 'Thrombotonin', 'Indol-5-ol, 3-(2-aminoethyl)-', 'G77704', 'indole, 3-(2-aminoethyl)-5-hydroxy-', 'IDI1_002151', 'Bio2_000876', 'NCGC00015525-09', 'Enteramin; Enteramine', 'HMS3403H13', 'NCGC00015525-07', 'KBioGR_002472', 'SPBio_002262', 'Antemovis', 'DTXCID4040765', '5-hydroxy-tryptamine', 'Substanz DS', 'Prestwick0_000481', 'BPBio1_000377', 'KBioSS_000452', 'UNII-333DO1RDJY', 'Bio2_000396', 'CHEBI:28790', 'BSPBio_000341', 'BDBM10755', '1094000-36-8', 'SEROTONIN (MART.)', '5-Hydroxytryptamine, free base', '2-imino-1-methylimidazolidin-4-one; 3-(2-aminoethyl)-1H-indol-5-ol; bis(sulfuric acid)', 'SMP1_000272', 'NCGC00015525-18', 'KBio3_000844', '5-Hydroxytriptamine', 'CAS-153-98-0', 'DTXSID8075330', 'Thrombocytin', 'KBio2_005040', 'SEROTONIN [WHO-DD]', 'KBio3_000843', 'KBioSS_002479', 'BPBio1_001079', 'GTPL5', 'STK503758', 'L000078', '5-hydroxy tryptamine creatinine disulfate', 'BRD-K38580127-003-15-4', 'BRD-K38580127-003-16-2', 'NS00007188', 'NCGC00142449-05', 'Hippophain', 'SEROTONIN [MART.]', '5 Hydroxytryptamine', 'HMS1792H13', '5-hydroxyl tryptamine', 'Q167934', 'Substance DS', 'HMS1990H13', 'KBio2_007608', 'Tryptamine, 5-hydroxy-', '3-(b-Aminoethyl)-5-hydroxyindole', '5-Hydroxyltryptamine', 'SCHEMBL1495', 'EINECS 200-058-9', '5-hydroxytryptamin', 'SDCCGSBI-0050589.P002', 'Serotonin1543', 'CHEMBL39', 'Lopac0_000607', 'BRD-K38580127-003-17-0', 'NCGC00142449-02', 'KBio2_002472', 'AKOS001484724', 'Prestwick3_000481', 'KBio2_005588', '5-HT', 'Biomol-NT_000083', 'Bio1_000450', 'DB08839', '3-(beta-Aminoethyl)-5-hydroxyindole', 'Hippophaine', 'AS-75772', 'NCGC00142449-04', '333DO1RDJY', 'NCGC00015525-04', '3-(2-Aminoethyl)indol-5-ol', 'KBioGR_000452', '5-Hta', '5-Hydroxy-3-(beta-aminoethyl)indole', 'NCGC00015525-02', 'NCGC00142449-01', 'Prestwick1_000481', '5-22-12-00016 (Beilstein Handbook Reference)', 'Lopac-H-9523', 'KBio2_003020', 'Oprea1_712368', 'Serotonin, analytical standard', 'PDSP2_001496', '3-(2-Amino-ethyl)-1H-indol-5-ol', 'Bio1_001428', 'A828245', 'PDSP1_001512', 'SEROTONIN [MI]', 'KBio3_002950', 'Enteramin', 'HMS1362H13', 'BRN 0143524']

$$$$
